<?xml version="1.0" encoding="UTF-8"?>

<!-- generated on 2025-09-11 13:52:09 by Eclipse SUMO netedit Version 1.24.0
-->

<additional xmlns:xsi="http://www.w3.org/2001/XMLSchema-instance" xsi:noNamespaceSchemaLocation="http://sumo.dlr.de/xsd/additional_file.xsd">
    <!-- Detectors -->
    <laneAreaDetector id="e2_0" lane="71644022#7_0" pos="51" length="20.00" period="300.00" file="e2_0.xml" friendlyPos="1"/>
    <laneAreaDetector id="e2_1" lane="25457938#6_0" pos="47" length="20.00" period="300.00" file="e2_1.xml" friendlyPos="1"/>
    <laneAreaDetector id="e2_3" lane="70705846#9_0" pos="87" length="20.00" period="300.00" file="e2_3.xml" friendlyPos="1"/>
</additional>
