<configuration>
    <input>
        <net-file value="try.net.xml"/>
        <route-files value="map.rou.xml"/>
         <additional-files value="detectors.add.xml"/>
        <gui-settings-file value="gui-settings.xml"/>
    </input>
    <time>
        <begin value="0"/>
        <end value="10000"/>
    </time>
    
</configuration>
